testData/tamu2000/pfcases_200_fullsys_test/texas2000_hr_4493_mod_23.raw
0  100.000 
THIS IS A SYNTHETIC POWER SYSTEM MODEL THAT DOES NOT REPRESE
DATA RESEARCH PROJECT AND CONTAINS NO CEII.
1001,  1,  0.000,  0.000,  0.000,  0.000,  1,  1.01516,  -58.4139,  'ODESSA 2',  115.00,  9
1002,  1,  0.000,  0.000,  0.000,  0.000,  1,  1.02683,  -59.9146,  'PRESIDIO',  115.00,  9
1003,  1,  0.000,  0.000,  0.000,  0.000,  1,  1.02657,  -51.1458,  'O DONNEL',  115.00,  9
1004,  2,  0.000,  0.000,  0.000,  0.000,  1,  1.02926,  -50.8837,  'O DONNEL',  230.00,  9
1005,  1,  0.000,  0.000,  0.000,  0.000,  1,  1.01648,  -53.7708,  'BIG SPRI',  115.00,  9
1006,  1,  -9.519,  4.940,  0.000,  0.000,  1,  1.01128,  -53.0453,  'BIG SPRI',  13.800,  9
1007,  1,  0.000,  4.059,  0.000,  0.000,  1,  1.03000,  -59.1663,  'VAN HORN',  115.00,  9
1008,  1,  0.000,  0.000,  0.000,  0.000,  1,  1.02162,  -54.0393,  'IRAAN 2 ',  115.00,  9
1009,  1,  -22.889,  11.880,  0.000,  0.000,  1,  1.01129,  -52.8070,  'IRAAN 2 ',  13.800,  9
1010,  1,  0.000,  5.564,  0.000,  0.000,  1,  1.03000,  -59.2593,  'PRESIDIO',  115.00,  9
1011,  2,  0.000,  0.000,  0.000,  0.000,  1,  1.03000,  -59.2593,  'PRESIDIO',  22.000,  9
1012,  1,  -0.004,  -5.464,  0.000,  0.000,  1,  1.03000,  -62.5747,  'SANDERSO',  115.00,  9
1013,  1,  0.000,  0.000,  0.000,  0.000,  1,  1.01438,  -55.2351,  'MONAHANS',  115.00,  9
1014,  1,  0.000,  0.000,  0.000,  0.000,  1,  1.01861,  -54.0240,  'GRANDFAL',  115.00,  9
1015,  1,  0.000,  0.000,  0.000,  0.000,  1,  1.03337,  -59.7474,  'MARFA 0 ',  115.00,  9
1016,  1,  -0.000,  -31.586,  0.000,  0.000,  1,  1.02610,  -55.3591,  'GARDEN C',  115.00,  9
1017,  1,  0.000,  0.000,  0.000,  0.000,  1,  1.00637,  -59.0164,  'ODESSA 4',  115.00,  9
1018,  1,  0.000,  0.000,  0.000,  0.000,  1,  1.00349,  -59.7021,  'NOTREES ',  115.00,  9
1019,  1,  0.000,  -127.158,  0.000,  0.000,  1,  1.03000,  -58.3975,  'MIDLAND ',  115.00,  9
1020,  1,  0.000,  -50.039,  0.000,  0.000,  1,  1.03000,  -53.7122,  'BIG SPRI',  115.00,  9
1021,  2,  0.000,  0.000,  0.000,  0.000,  1,  1.00861,  -51.2747,  'BIG SPRI',  13.800,  9
1022,  1,  0.000,  0.000,  0.000,  0.000,  1,  1.02716,  -50.7300,  'O DONNEL',  115.00,  9
1023,  2,  0.000,  0.000,  0.000,  0.000,  1,  1.01000,  -47.4459,  'O DONNEL',  13.800,  9
1024,  1,  0.000,  0.000,  0.000,  0.000,  1,  1.00287,  -60.2464,  'ODESSA 6',  115.00,  9
1025,  1,  0.000,  0.000,  0.000,  0.000,  1,  1.02340,  -53.2152,  'BIG SPRI',  115.00,  9
1026,  2,  0.000,  0.000,  0.000,  0.000,  1,  1.00363,  -50.5856,  'BIG SPRI',  13.800,  9
1027,  1,  -0.000,  -58.401,  0.000,  0.000,  1,  1.03000,  -59.8812,  'MIDLAND ',  115.00,  9
1028,  1,  0.000,  0.000,  0.000,  0.000,  1,  1.03122,  -51.1016,  'COAHOMA ',  115.00,  9
1029,  1,  -0.000,  -41.749,  0.000,  0.000,  1,  1.02163,  -60.8291,  'MIDLAND ',  115.00,  9
1030,  1,  0.000,  0.000,  0.000,  0.000,  1,  1.02767,  -56.8783,  'ALPINE 0',  115.00,  9
1031,  1,  0.000,  0.000,  0.000,  0.000,  1,  1.02494,  -57.5011,  'FORT DAV',  115.00,  9
1032,  1,  0.000,  0.000,  0.000,  0.000,  1,  1.01189,  -54.4000,  'MCCAMEY ',  115.00,  9
1033,  2,  0.000,  0.000,  0.000,  0.000,  1,  1.00953,  -54.8009,  'MCCAMEY ',  230.00,  9
1034,  1,  0.000,  0.000,  0.000,  0.000,  1,  1.01111,  -53.6899,  'BIG SPRI',  115.00,  9
1035,  1,  -24.971,  12.960,  0.000,  0.000,  1,  1.00097,  -52.4566,  'BIG SPRI',  13.800,  9
1036,  1,  0.000,  0.000,  0.000,  0.000,  1,  1.00405,  -55.0060,  'CRANE 0 ',  115.00,  9
1037,  1,  0.000,  0.000,  0.000,  0.000,  1,  1.00516,  -59.2341,  'ODESSA 5',  115.00,  9
1038,  1,  0.000,  0.000,  0.000,  0.000,  1,  1.01795,  -53.6434,  'FORT STO',  115.00,  9
1039,  2,  0.000,  0.000,  0.000,  0.000,  1,  1.00000,  -51.6400,  'FORT STO',  22.000,  9
1040,  1,  0.000,  0.000,  0.000,  0.000,  1,  1.01177,  -60.1099,  'ANDREWS ',  115.00,  9
1041,  1,  0.000,  0.000,  0.000,  0.000,  1,  1.00925,  -53.1915,  'FORSAN 0',  115.00,  9
1042,  2,  0.000,  0.000,  0.000,  0.000,  1,  1.00000,  -50.6791,  'FORSAN 1',  13.800,  9
1043,  1,  -16.315,  7.515,  0.000,  0.000,  1,  0.99986,  -51.9888,  'FORSAN 2',  13.800,  9
1044,  1,  0.000,  0.000,  0.000,  0.000,  1,  1.02640,  -59.1807,  'BIG LAKE',  115.00,  9
1045,  1,  0.000,  0.000,  0.000,  0.000,  1,  1.01455,  -59.5557,  'MIDLAND ',  115.00,  9
1046,  1,  -0.005,  -2.322,  0.000,  0.000,  1,  1.03000,  -60.0091,  'OZONA 0 ',  115.00,  9
1047,  1,  0.000,  0.000,  0.000,  0.000,  1,  1.01141,  -53.2690,  'MONAHANS',  115.00,  9
1048,  2,  0.000,  0.000,  0.000,  0.000,  1,  1.00000,  -49.5958,  'MONAHANS',  18.000,  9
1049,  2,  0.000,  0.000,  0.000,  0.000,  1,  1.00000,  -46.7327,  'MONAHANS',  18.000,  9
1050,  2,  0.000,  0.000,  0.000,  0.000,  1,  1.01141,  -53.2690,  'MONAHANS',  18.000,  9
1051,  2,  0.000,  0.000,  0.000,  0.000,  1,  1.01141,  -53.2690,  'MONAHANS',  18.000,  9
1052,  2,  0.000,  0.000,  0.000,  0.000,  1,  1.01141,  -53.2690,  'MONAHANS',  18.000,  9
1053,  2,  0.000,  0.000,  0.000,  0.000,  1,  1.00966,  -53.0211,  'MONAHANS',  230.00,  9
1054,  1,  0.000,  0.000,  0.000,  0.000,  1,  1.01905,  -56.7205,  'STANTON ',  115.00,  9
1055,  1,  0.000,  0.000,  0.000,  0.000,  1,  1.02164,  -52.0182,  'ODONNELL',  115.00,  9
1056,  1,  0.001,  -43.050,  0.000,  0.000,  1,  1.03000,  -56.9177,  'LENORAH ',  115.00,  9
1057,  2,  0.000,  0.000,  0.000,  0.000,  1,  1.00744,  -54.0740,  'LENORAH ',  18.000,  9
1058,  1,  0.000,  0.000,  0.000,  0.000,  1,  1.02721,  -55.5701,  'IRAAN 3 ',  115.00,  9
1059,  2,  0.000,  0.000,  0.000,  0.000,  1,  1.02721,  -55.5701,  'IRAAN 3 ',  22.000,  9
1060,  2,  0.000,  0.000,  0.000,  0.000,  1,  1.02721,  -55.5701,  'IRAAN 3 ',  22.000,  9
1061,  1,  0.000,  0.000,  0.000,  0.000,  1,  1.01924,  -54.0971,  'BIG SPRI',  115.00,  9
1062,  2,  0.000,  0.000,  0.000,  0.000,  1,  1.01924,  -54.0971,  'BIG SPRI',  13.800,  9
1063,  2,  0.000,  0.000,  0.000,  0.000,  1,  1.01924,  -54.0971,  'BIG SPRI',  13.800,  9
1064,  1,  0.000,  0.000,  0.000,  0.000,  1,  1.01102,  -59.2785,  'ODESSA 3',  115.00,  9
1065,  1,  0.000,  0.000,  0.000,  0.000,  1,  1.01126,  -53.3064,  'BIG SPRI',  115.00,  9
1066,  2,  0.000,  0.000,  0.000,  0.000,  1,  1.00000,  -50.5182,  'BIG SPRI',  13.800,  9
1067,  1,  0.000,  0.000,  0.000,  0.000,  1,  1.00874,  -53.6762,  'BIG SPRI',  115.00,  9
1068,  1,  0.000,  0.000,  0.000,  0.000,  1,  0.99827,  -57.0949,  'MIDLAND ',  115.00,  9
1069,  1,  0.000,  0.000,  0.000,  0.000,  1,  1.02654,  -54.4068,  'IRAAN 1 ',  115.00,  9
1070,  2,  0.000,  0.000,  0.000,  0.000,  1,  1.04000,  -52.7634,  'IRAAN 1 ',  13.800,  9
1071,  1,  0.000,  0.000,  0.000,  0.000,  1,  1.01967,  -57.6059,  'ODESSA 1',  115.00,  9
1072,  3,  0.000,  0.000,  0.000,  0.000,  1,  1.01000,  -61.7070,  'ODESSA 1',  18.000,  9
1073,  2,  0.000,  0.000,  0.000,  0.000,  1,  1.01000,  -53.3530,  'ODESSA 1',  18.000,  9
1074,  2,  0.000,  0.000,  0.000,  0.000,  1,  1.01000,  -53.5821,  'ODESSA 1',  18.000,  9
1075,  2,  0.000,  0.000,  0.000,  0.000,  1,  1.01000,  -54.3866,  'ODESSA 1',  18.000,  9
1076,  2,  0.000,  0.000,  0.000,  0.000,  1,  1.01000,  -56.0064,  'ODESSA 1',  18.000,  9
1077,  2,  0.000,  0.000,  0.000,  0.000,  1,  1.01000,  -53.7069,  'ODESSA 1',  18.000,  9
1078,  2,  0.000,  0.000,  0.000,  0.000,  1,  1.01967,  -57.6059,  'ODESSA 1',  18.000,  9
1079,  2,  0.000,  0.000,  0.000,  0.000,  1,  1.05521,  -56.3787,  'ODESSA 1',  500.00,  9
1080,  2,  0.000,  0.000,  0.000,  0.000,  1,  1.01967,  -57.6059,  'ODESSA 1',  18.000,  9
1081,  2,  0.000,  0.000,  0.000,  0.000,  1,  1.01268,  -53.8642,  'ODESSA 1',  230.00,  9
1082,  2,  0.000,  0.000,  0.000,  0.000,  1,  1.01718,  -53.0740,  'FORT STO',  115.00,  9
1083,  1,  -0.000,  -27.462,  0.000,  0.000,  1,  1.02477,  -54.7015,  'FORT STO',  115.00,  9
1084,  2,  0.000,  0.000,  0.000,  0.000,  1,  1.03717,  -54.9824,  'BIG SPRI',  115.00,  9
1085,  1,  0.000,  0.000,  0.000,  0.000,  1,  1.01436,  -55.8349,  'KERMIT 0',  115.00,  9
1086,  1,  -0.000,  -31.484,  0.000,  0.000,  1,  1.02443,  -57.5385,  'PECOS 0 ',  115.00,  9
1087,  1,  0.000,  0.000,  0.000,  0.000,  1,  1.03063,  -57.7444,  'SHEFFIEL',  115.00,  9
1088,  1,  -20.809,  8.671,  0.000,  0.000,  1,  0.99940,  -54.9878,  'MCCAMEY ',  115.00,  9
1089,  1,  0.000,  0.000,  0.000,  0.000,  1,  1.00941,  -54.6171,  'LAMESA 0',  115.00,  9
1090,  1,  -19.977,  -28.072,  0.000,  0.000,  1,  1.01949,  -58.9083,  'GOLDSMIT',  115.00,  9
1091,  1,  0.000,  0.000,  0.000,  0.000,  1,  1.03850,  -57.2458,  'RALLS 2 ',  161.00,  9
2001,  1,  0.000,  0.000,  0.000,  0.000,  2,  1.02439,  -60.4451,  'PARIS 3 ',  161.00,  11
2002,  1,  0.000,  0.000,  0.000,  0.000,  2,  1.03081,  -58.7275,  'SAVOY 0 ',  500.00,  11
2003,  1,  0.000,  0.000,  0.000,  0.000,  2,  1.03054,  -60.0577,  'SAVOY 1 ',  161.00,  11
2004,  2,  0.000,  0.000,  0.000,  0.000,  2,  1.02470,  -57.7876,  'SAVOY 2 ',  13.800,  11
2005,  2,  0.000,  0.000,  0.000,  0.000,  2,  1.02371,  -57.6258,  'SAVOY 3 ',  13.800,  11
2006,  2,  0.000,  0.000,  0.000,  0.000,  2,  1.02000,  -57.0032,  'SAVOY 4 ',  13.800,  11
2007,  1,  0.000,  0.000,  0.000,  0.000,  2,  1.02675,  -59.9650,  'HONEY GR',  161.00,  11
2008,  1,  0.000,  0.000,  0.000,  0.000,  2,  1.02171,  -59.3839,  'MEMPHIS ',  161.00,  10
2009,  1,  0.005,  -55.100,  0.000,  0.000,  2,  1.03000,  -59.3380,  'IOWA PAR',  161.00,  11
2010,  1,  0.006,  -5.243,  0.000,  0.000,  2,  1.03000,  -58.6389,  'VERNON 2',  161.00,  10
2011,  1,  0.000,  0.000,  0.000,  0.000,  2,  1.04252,  -56.1176,  'PANHANDL',  500.00,  10
2012,  1,  0.000,  0.000,  0.000,  0.000,  2,  1.03313,  -56.2313,  'PANHANDL',  161.00,  10
2013,  1,  -26.649,  28.890,  0.000,  0.000,  2,  1.03452,  -55.7008,  'PANHANDL',  18.000,  10
2014,  1,  0.000,  0.000,  0.000,  0.000,  2,  1.02157,  -59.9188,  'CHILDRES',  161.00,  10
2015,  1,  0.000,  0.000,  0.000,  0.000,  2,  1.02354,  -63.1500,  'FORESTBU',  161.00,  11
2016,  1,  0.000,  0.000,  0.000,  0.000,  2,  1.02628,  -62.6914,  'SHERMAN ',  161.00,  11
2017,  1,  -0.000,  214.186,  0.000,  0.000,  2,  1.03486,  -55.9100,  'PANHANDL',  500.00,  10
2018,  1,  0.000,  0.000,  0.000,  0.000,  2,  1.03533,  -56.0259,  'PANHANDL',  161.00,  10
2019,  2,  0.000,  0.000,  0.000,  0.000,  2,  1.03486,  -55.9100,  'PANHANDL',  20.000,  10
2020,  1,  0.000,  0.000,  0.000,  0.000,  2,  1.02234,  -58.3144,  'WICHITA ',  161.00,  11
2021,  1,  0.000,  0.000,  0.000,  0.000,  2,  1.03206,  -58.2495,  'PARIS 2 ',  500.00,  11
2022,  1,  0.000,  0.000,  0.000,  0.000,  2,  1.02885,  -59.6102,  'PARIS 2 ',  161.00,  11
2023,  2,  0.000,  0.000,  0.000,  0.000,  2,  1.03206,  -58.2495,  'PARIS 2 ',  13.800,  11
2024,  2,  0.000,  0.000,  0.000,  0.000,  2,  1.02781,  -57.5910,  'PARIS 2 ',  13.800,  11
2025,  1,  0.000,  0.000,  0.000,  0.000,  2,  1.02070,  -57.9070,  'WICHITA ',  161.00,  11
2026,  1,  0.000,  0.000,  0.000,  0.000,  2,  1.03178,  -56.6442,  'WHEELER ',  161.00,  10
2027,  1,  0.000,  0.000,  0.000,  0.000,  2,  1.02423,  -60.8107,  'DEPORT 0',  161.00,  11
2028,  1,  0.000,  0.000,  0.000,  0.000,  2,  1.02210,  -59.3689,  'WICHITA ',  161.00,  11
2029,  1,  0.000,  0.000,  0.000,  0.000,  2,  1.02915,  -59.2007,  'SILVERTO',  161.00,  10
2030,  1,  0.000,  0.000,  0.000,  0.000,  2,  1.01605,  -62.1311,  'BONHAM 0',  161.00,  11
2031,  1,  0.000,  0.000,  0.000,  0.000,  2,  1.04098,  -56.2965,  'MATADOR ',  161.00,  10
2032,  1,  0.000,  0.000,  0.000,  0.000,  2,  1.02805,  -59.6563,  'ARTHUR C',  161.00,  11
2033,  1,  0.000,  0.000,  0.000,  0.000,  2,  1.00812,  -63.6424,  'LEONARD ',  161.00,  11
2034,  1,  0.000,  0.000,  0.000,  0.000,  2,  1.02792,  -62.3711,  'GORDONVI',  161.00,  11
2035,  1,  0.000,  0.000,  0.000,  0.000,  2,  1.03780,  -56.3033,  'KNOX CIT',  161.00,  10
2036,  1,  0.000,  0.000,  0.000,  0.000,  2,  1.02234,  -58.3736,  'WICHITA ',  161.00,  11
2037,  1,  0.000,  0.000,  0.000,  0.000,  2,  1.02875,  -62.9431,  'LINDSAY ',  161.00,  11
2038,  1,  0.000,  0.000,  0.000,  0.000,  2,  1.02777,  -60.6574,  'ECTOR 0 ',  161.00,  11
2039,  1,  0.000,  0.000,  0.000,  0.000,  2,  1.01483,  -62.8380,  'SUNSET 0',  161.00,  11
2040,  1,  0.000,  0.000,  0.000,  0.000,  2,  1.02866,  -60.0649,  'CLARKSVI',  161.00,  11
2041,  1,  0.000,  0.000,  0.000,  0.000,  2,  1.02882,  -55.7409,  'PANHANDL',  161.00,  10
2042,  1,  -13.502,  11.460,  0.000,  0.000,  2,  1.02024,  -55.1491,  'PANHANDL',  18.000,  10
2043,  1,  0.000,  0.000,  0.000,  0.000,  2,  1.02724,  -62.5161,  'SADLER 0',  161.00,  11
2044,  1,  0.000,  0.000,  0.000,  0.000,  2,  1.02998,  -62.1819,  'WHITESBO',  161.00,  11
2045,  1,  0.000,  0.000,  0.000,  0.000,  2,  1.02192,  -58.5707,  'SHEPPARD',  161.00,  11
2046,  1,  0.000,  0.000,  0.000,  0.000,  2,  1.02870,  -62.1909,  'POTTSBOR',  161.00,  11
2047,  1,  0.000,  0.000,  0.000,  0.000,  2,  1.03026,  -60.4342,  'BELLS 0 ',  161.00,  11
2048,  1,  0.000,  0.000,  0.000,  0.000,  2,  1.04074,  -57.3077,  'CROSBYTO',  161.00,  10
2049,  1,  0.000,  0.000,  0.000,  0.000,  2,  1.02783,  -58.5168,  'ELECTRA ',  161.00,  10
2050,  1,  0.000,  0.000,  0.000,  0.000,  2,  1.00974,  -63.2130,  'PATTONVI',  161.00,  11
2051,  1,  0.000,  0.000,  0.000,  0.000,  2,  1.01978,  -61.3035,  'HENRIETT',  161.00,  11
2052,  1,  0.000,  0.000,  0.000,  0.000,  2,  1.02208,  -58.5221,  'PANHANDL',  161.00,  10
2053,  1,  0.000,  0.000,  0.000,  0.000,  2,  1.01804,  -61.1037,  'BOWIE 0 ',  161.00,  11
2054,  1,  0.000,  0.000,  0.000,  0.000,  2,  1.02442,  -57.3892,  'WICHITA ',  500.00,  11
2055,  1,  0.000,  0.000,  0.000,  0.000,  2,  1.02340,  -57.8780,  'WICHITA ',  161.00,  11
2056,  2,  0.000,  0.000,  0.000,  0.000,  2,  1.02442,  -57.3892,  'WICHITA ',  18.000,  11
2057,  3,  0.000,  0.000,  0.000,  0.000,  2,  0.99000,  -56.9501,  'WICHITA ',  18.000,  11
2058,  1,  0.000,  0.000,  0.000,  0.000,  2,  1.02730,  -55.6900,  'WHITE DE',  161.00,  10
2059,  1,  -8.463,  11.520,  0.000,  0.000,  2,  1.01627,  -55.1876,  'WHITE DE',  13.800,  10
2060,  1,  0.000,  0.000,  0.000,  0.000,  2,  1.01120,  -62.3410,  'ROXTON 0',  161.00,  11
2061,  1,  0.000,  0.000,  0.000,  0.000,  2,  1.02637,  -57.6920,  'VERNON 1',  161.00,  10
2062,  2,  0.000,  0.000,  0.000,  0.000,  2,  1.02000,  -56.7355,  'VERNON 1',  18.000,  10
2063,  1,  0.000,  -19.050,  0.000,  0.000,  2,  1.03000,  -61.9020,  'DENISON ',  161.00,  11
2064,  1,  0.000,  0.000,  0.000,  0.000,  2,  1.02017,  -60.9197,  'SUMNER 0',  161.00,  11
2065,  1,  0.000,  -45.247,  0.000,  0.000,  2,  1.03000,  -63.3053,  'GAINESVI',  161.00,  11
2066,  1,  0.000,  0.000,  0.000,  0.000,  2,  1.03734,  -55.0047,  'ASPERMON',  161.00,  10
2067,  1,  0.000,  0.000,  0.000,  0.000,  2,  1.01902,  -57.7320,  'WICHITA ',  161.00,  11
2068,  1,  0.000,  0.000,  0.000,  0.000,  2,  1.01993,  -55.9661,  'WINDTHOR',  161.00,  11
2069,  1,  -0.000,  -23.416,  0.000,  0.000,  2,  1.03000,  -62.3676,  'HOWE 0  ',  161.00,  11
2070,  1,  0.000,  0.000,  0.000,  0.000,  2,  1.02137,  -55.4712,  'ARCHER 2',  161.00,  11
2071,  2,  0.000,  0.000,  0.000,  0.000,  2,  1.00935,  -53.5364,  'ARCHER 2',  18.000,  11
2072,  1,  0.000,  0.000,  0.000,  0.000,  2,  1.03100,  -61.5430,  'COLLINSV',  161.00,  11
2073,  1,  0.000,  0.000,  0.000,  0.000,  2,  1.03676,  -53.7823,  'JAYTON 0',  161.00,  10
2074,  1,  0.000,  0.000,  0.000,  0.000,  2,  1.02913,  -53.1320,  'JAYTON 1',  115.00,  10
2075,  1,  0.000,  0.000,  0.000,  0.000,  2,  1.02913,  -53.1320,  'JAYTON 2',  115.00,  10
2076,  1,  -8.324,  -3.875,  0.000,  0.000,  2,  1.03978,  -53.4625,  'JAYTON 3',  24.000,  10
2077,  1,  0.000,  0.000,  0.000,  0.000,  2,  1.02833,  -62.2127,  'MUENSTER',  161.00,  11
2078,  2,  0.000,  0.000,  0.000,  0.000,  2,  1.02000,  -60.4295,  'MUENSTER',  13.800,  11
2079,  1,  0.000,  0.000,  0.000,  0.000,  2,  1.03631,  -58.2108,  'PADUCAH ',  161.00,  10
2080,  1,  0.000,  0.000,  0.000,  0.000,  2,  1.02049,  -62.0402,  'NOCONA 0',  161.00,  11
2081,  1,  0.000,  0.000,  0.000,  0.000,  2,  1.02263,  -61.7284,  'DODD CIT',  161.00,  11
2082,  1,  0.000,  0.000,  0.000,  0.000,  2,  1.02293,  -58.7420,  'WICHITA ',  161.00,  11
2083,  2,  0.000,  0.000,  0.000,  0.000,  2,  1.02293,  -58.7420,  'WICHITA ',  20.000,  11
2084,  2,  0.000,  0.000,  0.000,  0.000,  2,  1.02293,  -58.7420,  'WICHITA ',  20.000,  11
2085,  2,  0.000,  0.000,  0.000,  0.000,  2,  1.02293,  -58.7420,  'WICHITA ',  20.000,  11
2086,  1,  0.000,  0.000,  0.000,  0.000,  2,  1.01738,  -62.5492,  'MONTAGUE',  161.00,  11
2087,  1,  0.000,  0.000,  0.000,  0.000,  2,  1.03874,  -55.1832,  'SPUR 0  ',  161.00,  10
2088,  1,  0.000,  0.000,  0.000,  0.000,  2,  1.02018,  -55.7050,  'ARCHER 1',  161.00,  11
2089,  1,  -27.261,  9.730,  0.000,  0.000,  2,  1.00835,  -53.8082,  'ARCHER 1',  24.000,  11
2090,  1,  0.000,  0.000,  0.000,  0.000,  2,  1.02275,  -61.3790,  'ANNONA 0',  161.00,  11
2091,  1,  0.000,  0.000,  0.000,  0.000,  2,  1.03544,  -57.6910,  'SEYMOUR ',  161.00,  10
2092,  1,  0.000,  0.000,  0.000,  0.000,  2,  1.02961,  -61.2039,  'DENISON ',  161.00,  11
2093,  1,  0.000,  0.000,  0.000,  0.000,  2,  1.03472,  -56.1418,  'PANHANDL',  161.00,  10
2094,  2,  0.000,  0.000,  0.000,  0.000,  2,  1.03472,  -56.1418,  'PANHANDL',  13.800,  10
2095,  2,  0.000,  0.000,  0.000,  0.000,  2,  1.03472,  -56.1418,  'PANHANDL',  13.800,  10
2096,  1,  0.000,  119.840,  0.000,  0.000,  2,  1.03000,  -54.9142,  'RALLS 1 ',  500.00,  10
2097,  1,  0.000,  0.000,  0.000,  0.000,  2,  1.03109,  -54.6912,  'RALLS 1 ',  230.00,  10
2098,  1,  0.000,  0.000,  0.000,  0.000,  2,  1.03861,  -56.8375,  'RALLS 1 ',  161.00,  10
2099,  1,  -0.108,  1.440,  0.000,  0.000,  2,  1.02951,  -54.9119,  'RALLS 1 ',  18.000,  10
2100,  1,  -1.627,  21.600,  0.000,  0.000,  2,  1.02105,  -54.8679,  'RALLS 1 ',  18.000,  10
2101,  1,  0.000,  0.000,  0.000,  0.000,  2,  1.03278,  -59.3464,  'SHERMAN ',  500.00,  11
2102,  1,  0.000,  0.000,  0.000,  0.000,  2,  1.03297,  -60.1736,  'SHERMAN ',  161.00,  11
2103,  2,  0.000,  0.000,  0.000,  0.000,  2,  1.03278,  -59.3464,  'SHERMAN ',  20.000,  11
2104,  2,  0.000,  0.000,  0.000,  0.000,  2,  1.03278,  -59.3464,  'SHERMAN ',  20.000,  11
2105,  2,  0.000,  0.000,  0.000,  0.000,  2,  1.03278,  -59.3464,  'SHERMAN ',  20.000,  11
2106,  1,  0.000,  0.000,  0.000,  0.000,  2,  1.01111,  -63.3117,  'WHITEWRI',  161.00,  11
2107,  1,  0.000,  0.000,  0.000,  0.000,  2,  1.03115,  -60.5394,  'SHERMAN ',  161.00,  11
2108,  1,  0.000,  0.000,  0.000,  0.000,  2,  1.03631,  -57.9503,  'ROCHESTE',  161.00,  10
2109,  1,  0.000,  0.000,  0.000,  0.000,  2,  1.02531,  -59.5349,  'BURKBURN',  161.00,  11
...
 0 /End of Bus data, Begin Generator data
1004,  '1',  58.544,  -30.380,  44.940,  -30.380,  1.01000,  0,  253.200,  0.00000,  1.00000,  0.00000,  0.00000,  1.00000,  1,  100.0,  211.000,  63.300
1011,  '1',  -0.000,  0.000,  0.000,  0.000,  1.00000,  0,  12.000,  0.00000,  1.00000,  0.00000,  0.00000,  1.00000,  0,  100.0,  10.000,  3.000
1021,  '1',  55.355,  -28.730,  42.490,  -28.730,  1.00000,  0,  239.400,  0.00000,  1.00000,  0.00000,  0.00000,  1.00000,  1,  100.0,  199.500,  59.850
1023,  '1',  49.943,  -15.596,  38.340,  -25.920,  1.01000,  0,  216.000,  0.00000,  1.00000,  0.00000,  0.00000,  1.00000,  1,  100.0,  180.000,  54.000
1026,  '1',  34.461,  -17.880,  26.450,  -17.880,  1.00000,  0,  149.040,  0.00000,  1.00000,  0.00000,  0.00000,  1.00000,  1,  100.0,  124.200,  37.260
1033,  '1',  77.134,  -40.030,  59.210,  -40.030,  1.00000,  0,  333.600,  0.00000,  1.00000,  0.00000,  0.00000,  1.00000,  1,  100.0,  278.000,  83.400
1039,  '1',  40.927,  -21.124,  31.420,  -21.240,  1.00000,  0,  177.000,  0.00000,  1.00000,  0.00000,  0.00000,  1.00000,  1,  100.0,  147.500,  44.250
1042,  '1',  39.438,  -8.927,  25.960,  -17.550,  1.00000,  0,  146.280,  0.00000,  1.00000,  0.00000,  0.00000,  1.00000,  1,  100.0,  121.900,  36.570
1048,  '1',  97.560,  -19.168,  165.530,  -36.100,  1.00000,  0,  390.240,  0.00000,  0.10170,  0.00000,  0.00000,  1.00000,  1,  100.0,  325.200,  97.560
1049,  '1',  97.560,  -6.393,  165.530,  -36.100,  1.00000,  0,  390.240,  0.00000,  0.13490,  0.00000,  0.00000,  1.00000,  1,  100.0,  325.200,  97.560
1050,  '1',  0.000,  -6.604,  45.500,  -9.920,  1.00000,  0,  107.280,  0.00000,  0.27770,  0.00000,  0.00000,  1.00000,  0,  100.0,  89.400,  26.820
1051,  '1',  0.000,  -4.791,  45.500,  -9.920,  1.00000,  0,  107.280,  0.00000,  0.31740,  0.00000,  0.00000,  1.00000,  0,  100.0,  89.400,  26.820
1052,  '1',  0.000,  -9.920,  45.500,  -9.920,  1.00000,  0,  107.280,  0.00000,  0.27810,  0.00000,  0.00000,  1.00000,  0,  100.0,  89.400,  26.820
1053,  '1',  53.640,  -19.850,  91.010,  -19.850,  1.00000,  0,  214.560,  0.00000,  0.16870,  0.00000,  0.00000,  1.00000,  1,  100.0,  178.800,  53.640
1057,  '1',  38.824,  -17.280,  25.560,  -17.280,  1.00000,  0,  144.000,  0.00000,  1.00000,  0.00000,  0.00000,  1.00000,  1,  100.0,  120.000,  36.000
1059,  '1',  0.000,  0.000,  2.850,  -0.620,  1.04000,  0,  6.720,  0.00000,  0.22770,  0.00000,  0.00000,  1.00000,  0,  100.0,  5.600,  1.680
1060,  '1',  0.000,  0.000,  1.020,  -0.220,  1.04000,  0,  2.400,  0.00000,  0.16300,  0.00000,  0.00000,  1.00000,  0,  100.0,  2.000,  0.600
1062,  '1',  -0.000,  0.000,  0.000,  0.000,  1.01000,  0,  1.800,  0.00000,  1.00000,  0.00000,  0.00000,  1.00000,  0,  100.0,  1.500,  0.450
1063,  '1',  -0.000,  0.000,  0.000,  0.000,  1.01000,  0,  276.000,  0.00000,  1.00000,  0.00000,  0.00000,  1.00000,  0,  100.0,  230.000,  69.000
1066,  '1',  39.540,  -9.802,  30.350,  -20.520,  1.00000,  0,  171.000,  0.00000,  1.00000,  0.00000,  0.00000,  1.00000,  1,  100.0,  142.500,  42.750
1070,  '1',  44.534,  18.741,  34.190,  -23.110,  1.04000,  0,  192.600,  0.00000,  1.00000,  0.00000,  0.00000,  1.00000,  1,  100.0,  160.500,  48.150
1072,  '1',  -86.317,  -2.994,  97.800,  -21.330,  1.01000,  0,  230.560,  0.00000,  0.30820,  0.00000,  0.00000,  1.00000,  1,  100.0,  192.130,  57.640
1073,  '1',  57.640,  -11.093,  97.800,  -21.330,  1.01000,  0,  230.560,  0.00000,  0.19480,  0.00000,  0.00000,  1.00000,  1,  100.0,  192.130,  57.640
1074,  '1',  57.640,  -8.463,  97.800,  -21.330,  1.01000,  0,  230.560,  0.00000,  0.20960,  0.00000,  0.00000,  1.00000,  1,  100.0,  192.130,  57.640
1075,  '1',  57.640,  -10.322,  97.800,  -21.330,  1.01000,  0,  230.560,  0.00000,  0.12370,  0.00000,  0.00000,  1.00000,  1,  100.0,  192.130,  57.640
1076,  '1',  57.640,  -20.609,  97.800,  -21.330,  1.01000,  0,  230.560,  0.00000,  0.10660,  0.00000,  0.00000,  1.00000,  1,  100.0,  192.130,  57.640
1077,  '1',  57.640,  -9.192,  97.800,  -21.330,  1.01000,  0,  230.560,  0.00000,  0.15380,  0.00000,  0.00000,  1.00000,  1,  100.0,  192.130,  57.640
1078,  '1',  0.000,  16.268,  48.610,  -10.600,  1.01000,  0,  114.600,  0.00000,  0.28520,  0.00000,  0.00000,  1.00000,  0,  100.0,  95.500,  28.650
1079,  '1',  0.000,  -10.600,  48.610,  -10.600,  1.01000,  0,  114.600,  0.00000,  0.17260,  0.00000,  0.00000,  1.00000,  0,  100.0,  95.500,  28.650
1080,  '1',  0.000,  13.126,  48.610,  -10.600,  1.01000,  0,  114.600,  0.00000,  0.15430,  0.00000,  0.00000,  1.00000,  0,  100.0,  95.500,  28.650
1081,  '1',  85.950,  -31.800,  145.830,  -31.800,  1.01000,  0,  343.800,  0.00000,  0.14960,  0.00000,  0.00000,  1.00000,  1,  100.0,  286.500,  85.950
1082,  '1',  41.619,  -21.600,  31.950,  -21.600,  1.00000,  0,  180.000,  0.00000,  1.00000,  0.00000,  0.00000,  1.00000,  1,  100.0,  150.000,  45.000
1084,  '1',  32.045,  24.600,  24.600,  -16.630,  1.04000,  0,  138.600,  0.00000,  1.00000,  0.00000,  0.00000,  1.00000,  1,  100.0,  115.500,  34.650
2004,  '1',  117.540,  -43.490,  199.430,  -43.490,  1.02000,  0,  470.160,  0.00000,  0.10640,  0.00000,  0.00000,  1.00000,  1,  100.0,  391.800,  117.540
2005,  '1',  117.540,  -43.490,  199.430,  -43.490,  1.02000,  0,  470.160,  0.00000,  0.22750,  0.00000,  0.00000,  1.00000,  1,  100.0,  391.800,  117.540
2006,  '1',  117.540,  -40.950,  199.430,  -43.490,  1.02000,  0,  470.160,  0.00000,  0.20040,  0.00000,  0.00000,  1.00000,  1,  100.0,  391.800,  117.540
2019,  '1',  -0.000,  3.029,  46.430,  -31.390,  1.04000,  0,  261.600,  0.00000,  1.00000,  0.00000,  0.00000,  1.00000,  0,  100.0,  218.000,  65.400
2023,  '1',  0.000,  15.439,  42.420,  -9.250,  1.02000,  0,  100.000,  0.00000,  0.29440,  0.00000,  0.00000,  1.00000,  0,  100.0,  83.330,  25.000
2024,  '1',  50.000,  -18.500,  84.830,  -18.500,  1.02000,  0,  200.000,  0.00000,  0.15080,  0.00000,  0.00000,  1.00000,  1,  100.0,  166.670,  50.000
2056,  '1',  0.000,  0.000,  2.800,  -0.730,  0.99000,  0,  7.200,  0.00000,  0.24920,  0.00000,  0.00000,  1.00000,  0,  100.0,  6.000,  1.800
2057,  '1',  53.929,  -258.765,  335.520,  -87.840,  0.99000,  0,  864.000,  0.00000,  0.17700,  0.00000,  0.00000,  1.00000,  1,  100.0,  720.000,  216.000
2062,  '1',  41.929,  -17.126,  28.840,  -19.500,  1.02000,  0,  162.480,  0.00000,  1.00000,  0.00000,  0.00000,  1.00000,  1,  100.0,  135.400,  40.620
2071,  '1',  60.490,  -21.600,  31.950,  -21.600,  1.00000,  0,  180.000,  0.00000,  1.00000,  0.00000,  0.00000,  1.00000,  1,  100.0,  150.000,  45.000
2078,  '1',  45.370,  -12.464,  23.960,  -16.200,  1.02000,  0,  135.000,  0.00000,  1.00000,  0.00000,  0.00000,  1.00000,  1,  100.0,  112.500,  33.750
2083,  '1',  0.000,  10.080,  10.180,  -2.220,  1.02000,  0,  24.000,  0.00000,  0.16410,  0.00000,  0.00000,  1.00000,  0,  100.0,  20.000,  6.000
2084,  '1',  0.000,  0.000,  10.180,  -2.220,  1.02000,  0,  24.000,  0.00000,  0.23120,  0.00000,  0.00000,  1.00000,  0,  100.0,  20.000,  6.000
2085,  '1',  0.000,  0.000,  20.360,  -4.440,  1.02000,  0,  48.000,  0.00000,  0.22690,  0.00000,  0.00000,  1.00000,  0,  100.0,  40.000,  12.000
2094,  '1',  -0.000,  -1.440,  2.130,  -1.440,  1.00000,  0,  12.000,  0.00000,  1.00000,  0.00000,  0.00000,  1.00000,  0,  100.0,  10.000,  3.000
2095,  '1',  -0.000,  -11.450,  16.930,  -11.450,  1.00000,  0,  95.400,  0.00000,  1.00000,  0.00000,  0.00000,  1.00000,  0,  100.0,  79.500,  23.850
2103,  '1',  0.000,  0.000,  136.280,  -29.720,  1.00000,  0,  321.280,  0.00000,  0.33430,  0.00000,  0.00000,  1.00000,  0,  100.0,  267.730,  80.320
2104,  '1',  0.000,  0.000,  136.280,  -29.720,  1.00000,  0,  321.280,  0.00000,  0.31470,  0.00000,  0.00000,  1.00000,  0,  100.0,  267.730,  80.320
2105,  '1',  0.000,  0.000,  136.280,  -29.720,  1.00000,  0,  321.280,  0.00000,  0.14160,  0.00000,  0.00000,  1.00000,  0,  100.0,  267.730,  80.320
2115,  '1',  55.410,  -20.500,  94.020,  -20.500,  1.00000,  0,  221.660,  0.00000,  0.14250,  0.00000,  0.00000,  1.00000,  1,  100.0,  184.720,  55.410
2116,  '1',  55.410,  -20.500,  94.020,  -20.500,  1.00000,  0,  221.660,  0.00000,  0.18690,  0.00000,  0.00000,  1.00000,  1,  100.0,  184.720,  55.410
2117,  '1',  55.410,  -20.500,  94.020,  -20.500,  1.00000,  0,  221.660,  0.00000,  0.32540,  0.00000,  0.00000,  1.00000,  1,  100.0,  184.720,  55.410
2118,  '1',  55.410,  -20.500,  94.020,  -20.500,  1.00000,  0,  221.660,  0.00000,  0.10610,  0.00000,  0.00000,  1.00000,  1,  100.0,  184.720,  55.410
2119,  '1',  55.410,  -20.500,  94.020,  -20.500,  1.00000,  0,  221.660,  0.00000,  0.13600,  0.00000,  0.00000,  1.00000,  1,  100.0,  184.720,  55.410
2120,  '1',  55.410,  -20.500,  94.020,  -20.500,  1.01000,  0,  221.660,  0.00000,  0.20680,  0.00000,  0.00000,  1.00000,  1,  100.0,  184.720,  55.410
2123,  '1',  30.822,  -26.160,  38.700,  -26.160,  1.00000,  0,  218.040,  0.00000,  1.00000,  0.00000,  0.00000,  1.00000,  1,  100.0,  181.700,  54.510
2127,  '1',  51.200,  -41.560,  61.470,  -41.560,  1.04000,  0,  346.320,  0.00000,  1.00000,  0.00000,  0.00000,  1.00000,  1,  100.0,  288.600,  86.580
3017,  '1',  47.031,  -14.081,  36.100,  -24.410,  1.01000,  0,  203.400,  0.00000,  1.00000,  0.00000,  0.00000,  1.00000,  1,  100.0,  169.500,  50.850
3020,  '1',  41.619,  -2.516,  31.950,  -21.600,  1.03000,  0,  180.000,  0.00000,  1.00000,  0.00000,  0.00000,  1.00000,  1,  100.0,  150.000,  45.000
3028,  '1',  80.653,  -5.533,  42.600,  -28.800,  1.04000,  0,  240.000,  0.00000,  1.00000,  0.00000,  0.00000,  1.00000,  1,  100.0,  200.000,  60.000
3034,  '1',  36.207,  4.231,  27.800,  -18.790,  1.03000,  0,  156.600,  0.00000,  1.00000,  0.00000,  0.00000,  1.00000,  1,  100.0,  130.500,  39.150
3039,  '1',  57.989,  -0.789,  44.520,  -30.100,  1.04000,  0,  250.800,  0.00000,  1.00000,  0.00000,  0.00000,  1.00000,  1,  100.0,  209.000,  62.700
3043,  '1',  0.000,  0.000,  0.660,  -0.140,  1.04000,  0,  1.560,  0.00000,  0.27280,  0.00000,  0.00000,  1.00000,  0,  100.0,  1.300,  0.390
3044,  '1',  0.000,  0.000,  45.500,  -9.920,  1.04000,  0,  107.280,  0.00000,  0.17000,  0.00000,  0.00000,  1.00000,  0,  100.0,  89.400,  26.820
3045,  '1',  134.100,  -1.836,  227.520,  -49.620,  1.04000,  0,  536.400,  0.00000,  0.14470,  0.00000,  0.00000,  1.00000,  1,  100.0,  447.000,  134.100
3048,  '1',  66.868,  -34.700,  51.330,  -34.700,  1.04000,  0,  289.200,  0.00000,  1.00000,  0.00000,  0.00000,  1.00000,  1,  100.0,  241.000,  72.300
3055,  '1',  68.026,  -0.225,  52.220,  -35.300,  1.04000,  0,  294.200,  0.00000,  1.00000,  0.00000,  0.00000,  1.00000,  1,  100.0,  245.170,  73.550
3056,  '1',  68.026,  0.321,  52.220,  -35.300,  1.04000,  0,  294.200,  0.00000,  1.00000,  0.00000,  0.00000,  1.00000,  1,  100.0,  245.170,  73.550
3057,  '1',  68.026,  -0.406,  52.220,  -35.300,  1.04000,  0,  294.200,  0.00000,  1.00000,  0.00000,  0.00000,  1.00000,  1,  100.0,  245.170,  73.550
3060,  '1',  45.955,  0.970,  35.280,  -23.850,  1.04000,  0,  198.750,  0.00000,  1.00000,  0.00000,  0.00000,  1.00000,  1,  100.0,  165.630,  49.690
3061,  '1',  45.955,  1.005,  35.280,  -23.850,  1.04000,  0,  198.750,  0.00000,  1.00000,  0.00000,  0.00000,  1.00000,  1,  100.0,  165.630,  49.690
3062,  '1',  45.955,  1.008,  35.280,  -23.850,  1.04000,  0,  198.750,  0.00000,  1.00000,  0.00000,  0.00000,  1.00000,  1,  100.0,  165.630,  49.690
3063,  '1',  45.955,  0.652,  35.280,  -23.850,  1.04000,  0,  198.750,  0.00000,  1.00000,  0.00000,  0.00000,  1.00000,  1,  100.0,  165.630,  49.690
3068,  '1',  41.619,  21.659,  31.950,  -21.600,  1.04000,  0,  180.000,  0.00000,  1.00000,  0.00000,  0.00000,  1.00000,  1,  100.0,  150.000,  45.000
3071,  '1',  47.224,  -24.510,  36.250,  -24.510,  1.00000,  0,  204.240,  0.00000,  1.00000,  0.00000,  0.00000,  1.00000,  1,  100.0,  170.200,  51.060
3081,  '1',  69.088,  -1.298,  53.040,  -35.860,  1.04000,  0,  298.800,  0.00000,  1.00000,  0.00000,  0.00000,  1.00000,  1,  100.0,  249.000,  74.700
3084,  '1',  64.508,  -33.480,  49.520,  -33.480,  1.00000,  0,  279.000,  0.00000,  1.00000,  0.00000,  0.00000,  1.00000,  1,  100.0,  232.500,  69.750
3092,  '1',  55.492,  0.749,  42.600,  -28.800,  1.04000,  0,  240.000,  0.00000,  1.00000,  0.00000,  0.00000,  1.00000,  1,  100.0,  200.000,  60.000
3095,  '1',  33.462,  7.581,  25.690,  -17.370,  1.04000,  0,  144.720,  0.00000,  1.00000,  0.00000,  0.00000,  1.00000,  1,  100.0,  120.600,  36.180
3098,  '1',  44.394,  3.173,  34.080,  -23.040,  1.04000,  0,  192.000,  0.00000,  1.00000,  0.00000,  0.00000,  1.00000,  1,  100.0,  160.000,  48.000
3106,  '1',  20.200,  -17.592,  62.477,  -2.690,  1.00000,  0,  65.880,  0.00000,  0.29220,  0.00000,  0.00000,  1.00000,  1,  100.0,  162.800,  0.000
3118,  '1',  33.295,  -17.280,  25.560,  -17.280,  1.00000,  0,  144.000,  0.00000,  1.00000,  0.00000,  0.00000,  1.00000,  1,  100.0,  120.000,  36.000
3122,  '1',  54.660,  -19.924,  41.960,  -28.370,  1.00000,  0,  236.400,  0.00000,  1.00000,  0.00000,  0.00000,  1.00000,  1,  100.0,  197.000,  59.100
3127,  '1',  37.457,  -19.440,  28.760,  -19.440,  1.00000,  0,  162.000,  0.00000,  1.00000,  0.00000,  0.00000,  1.00000,  1,  100.0,  135.000,  40.500
3129,  '1',  35.101,  -18.220,  26.940,  -18.220,  1.00000,  0,  151.800,  0.00000,  1.00000,  0.00000,  0.00000,  1.00000,  1,  100.0,  126.500,  37.950
3131,  '1',  31.630,  -10.344,  24.280,  -16.420,  1.02000,  0,  136.800,  0.00000,  1.00000,  0.00000,  0.00000,  1.00000,  1,  100.0,  114.000,  34.200
3133,  '1',  0.000,  26.110,  26.110,  -5.690,  1.04000,  0,  61.560,  0.00000,  0.10470,  0.00000,  0.00000,  1.00000,  0,  100.0,  51.300,  15.390
4010,  '1',  55.936,  3.391,  42.940,  -29.030,  1.03000,  0,  241.920,  0.00000,  1.00000,  0.00000,  0.00000,  1.00000,  1,  100.0,  201.600,  60.480
4026,  '1',  123.000,  5.206,  191.060,  -50.020,  1.03000,  0,  492.000,  0.00000,  0.32770,  0.00000,  0.00000,  1.00000,  1,  100.0,  410.000,  123.000
4030,  '1',  258.188,  -45.656,  290.040,  -75.930,  1.01000,  0,  746.880,  0.00000,  0.27970,  0.00000,  0.00000,  1.00000,  1,  100.0,  622.400,  186.720
4050,  '1',  55.492,  -28.800,  42.600,  -28.800,  1.00000,  0,  240.000,  0.00000,  1.00000,  0.00000,  0.00000,  1.00000,  1,  100.0,  200.000,  60.000
4052,  '1',  0.000,  22.500,  22.500,  -4.910,  1.04000,  0,  53.040,  0.00000,  0.28510,  0.00000,  0.00000,  1.00000,  0,  100.0,  44.200,  13.260
4058,  '1',  43.200,  6.601,  73.300,  -15.980,  1.03000,  0,  172.800,  0.00000,  0.13700,  0.00000,  0.00000,  1.00000,  1,  100.0,  144.000,  43.200
4059,  '1',  43.200,  7.094,  73.300,  -15.980,  1.03000,  0,  172.800,  0.00000,  0.15140,  0.00000,  0.00000,  1.00000,  1,  100.0,  144.000,  43.200
4060,  '1',  43.200,  4.564,  73.300,  -15.980,  1.03000,  0,  172.800,  0.00000,  0.13940,  0.00000,  0.00000,  1.00000,  1,  100.0,  144.000,  43.200
4061,  '1',  51.700,  6.597,  87.720,  -19.130,  1.03000,  0,  206.800,  0.00000,  0.21560,  0.00000,  0.00000,  1.00000,  1,  100.0,  172.330,  51.700
4062,  '1',  51.700,  4.601,  87.720,  -19.130,  1.03000,  0,  206.800,  0.00000,  0.25930,  0.00000,  0.00000,  1.00000,  1,  100.0,  172.330,  51.700
4063,  '1',  51.700,  7.142,  87.720,  -19.130,  1.03000,  0,  206.800,  0.00000,  0.14410,  0.00000,  0.00000,  1.00000,  1,  100.0,  172.330,  51.700
4065,  '1',  0.000,  13.408,  23.920,  -5.220,  1.02000,  0,  56.400,  0.00000,  0.15920,  0.00000,  0.00000,  1.00000,  0,  100.0,  47.000,  14.100
4075,  '1',  0.000,  0.000,  89.750,  -19.570,  1.03000,  0,  211.600,  0.00000,  0.11980,  0.00000,  0.00000,  1.00000,  0,  100.0,  176.330,  52.900
4076,  '1',  0.000,  23.562,  89.750,  -19.570,  1.03000,  0,  211.600,  0.00000,  0.13140,  0.00000,  0.00000,  1.00000,  0,  100.0,  176.330,  52.900
4077,  '1',  0.000,  17.974,  89.750,  -19.570,  1.03000,  0,  211.600,  0.00000,  0.23730,  0.00000,  0.00000,  1.00000,  0,  100.0,  176.330,  52.900
4082,  '1',  141.170,  13.483,  123.890,  -27.020,  1.04000,  0,  292.080,  0.00000,  0.13810,  0.00000,  0.00000,  1.00000,  1,  100.0,  243.400,  73.020
4083,  '1',  141.170,  14.171,  123.890,  -27.020,  1.04000,  0,  292.080,  0.00000,  0.15700,  0.00000,  0.00000,  1.00000,  1,  100.0,  243.400,  73.020
4084,  '1',  141.170,  24.456,  123.890,  -27.020,  1.04000,  0,  292.080,  0.00000,  0.19110,  0.00000,  0.00000,  1.00000,  1,  100.0,  243.400,  73.020
4085,  '1',  204.160,  27.449,  179.170,  -39.070,  1.04000,  0,  422.400,  0.00000,  0.31920,  0.00000,  0.00000,  1.00000,  1,  100.0,  352.000,  105.600
4090,  '1',  0.000,  0.000,  0.650,  -0.170,  1.01000,  0,  1.680,  0.00000,  0.23450,  0.00000,  0.00000,  1.00000,  0,  100.0,  1.400,  0.420
4091,  '1',  0.000,  2.447,  10.950,  -2.870,  1.01000,  0,  28.200,  0.00000,  0.13620,  0.00000,  0.00000,  1.00000,  0,  100.0,  23.500,  7.050
4092,  '1',  0.000,  0.000,  3.540,  -0.930,  1.01000,  0,  9.120,  0.00000,  0.10570,  0.00000,  0.00000,  1.00000,  0,  100.0,  7.600,  2.280
4093,  '1',  0.000,  1.299,  13.050,  -3.420,  1.01000,  0,  33.600,  0.00000,  0.12560,  0.00000,  0.00000,  1.00000,  0,  100.0,  28.000,  8.400
4094,  '1',  0.000,  4.863,  13.050,  -3.420,  1.01000,  0,  33.600,  0.00000,  0.35660,  0.00000,  0.00000,  1.00000,  0,  100.0,  28.000,  8.400
4095,  '1',  0.000,  2.145,  13.050,  -3.420,  1.01000,  0,  33.600,  0.00000,  0.24030,  0.00000,  0.00000,  1.00000,  0,  100.0,  28.000,  8.400
4096,  '1',  0.000,  0.000,  13.050,  -3.420,  1.01000,  0,  33.600,  0.00000,  0.23980,  0.00000,  0.00000,  1.00000,  0,  100.0,  28.000,  8.400
4097,  '1',  0.000,  1.867,  13.050,  -3.420,  1.01000,  0,  33.600,  0.00000,  0.22170,  0.00000,  0.00000,  1.00000,  0,  100.0,  28.000,  8.400
4098,  '1',  0.000,  0.000,  13.050,  -3.420,  1.01000,  0,  33.600,  0.00000,  0.24690,  0.00000,  0.00000,  1.00000,  0,  100.0,  28.000,  8.400
4105,  '1',  72.588,  -12.930,  38.340,  -25.920,  1.01000,  0,  216.000,  0.00000,  1.00000,  0.00000,  0.00000,  1.00000,  1,  100.0,  180.000,  54.000
4115,  '1',  39.540,  19.707,  67.090,  -14.630,  1.04000,  0,  158.160,  0.00000,  0.11310,  0.00000,  0.00000,  1.00000,  1,  100.0,  131.800,  39.540
4116,  '1',  39.540,  18.345,  67.090,  -14.630,  1.04000,  0,  158.160,  0.00000,  0.15150,  0.00000,  0.00000,  1.00000,  1,  100.0,  131.800,  39.540
4133,  '1',  0.000,  0.000,  17.100,  -3.730,  1.00000,  0,  40.320,  0.00000,  0.22730,  0.00000,  0.00000,  1.00000,  0,  100.0,  33.600,  10.080
4134,  '1',  0.000,  -3.730,  17.100,  -3.730,  1.00000,  0,  40.320,  0.00000,  0.18000,  0.00000,  0.00000,  1.00000,  0,  100.0,  33.600,  10.080
4135,  '1',  0.000,  -3.730,  17.100,  -3.730,  1.00000,  0,  40.320,  0.00000,  0.10840,  0.00000,  0.00000,  1.00000,  0,  100.0,  33.600,  10.080
4136,  '1',  0.000,  -3.730,  17.100,  -3.730,  1.00000,  0,  40.320,  0.00000,  0.18960,  0.00000,  0.00000,  1.00000,  0,  100.0,  33.600,  10.080
4137,  '1',  0.000,  0.000,  34.200,  -7.460,  1.00000,  0,  80.640,  0.00000,  0.27350,  0.00000,  0.00000,  1.00000,  0,  100.0,  67.200,  20.160
4138,  '1',  0.000,  0.000,  33.590,  -7.330,  1.00000,  0,  79.200,  0.00000,  0.16760,  0.00000,  0.00000,  1.00000,  0,  100.0,  66.000,  19.800
4142,  '1',  52.162,  19.276,  40.040,  -27.070,  1.04000,  0,  225.600,  0.00000,  1.00000,  0.00000,  0.00000,  1.00000,  1,  100.0,  188.000,  56.400
4153,  '1',  78.577,  40.422,  60.320,  -40.780,  1.04000,  0,  339.840,  0.00000,  1.00000,  0.00000,  0.00000,  1.00000,  1,  100.0,  283.200,  84.960
4160,  '1',  59.330,  21.025,  100.660,  -21.950,  1.03000,  0,  237.320,  0.00000,  0.18820,  0.00000,  0.00000,  1.00000,  1,  100.0,  197.770,  59.330
4161,  '1',  59.330,  9.062,  100.660,  -21.950,  1.03000,  0,  237.320,  0.00000,  0.12390,  0.00000,  0.00000,  1.00000,  1,  100.0,  197.770,  59.330
4162,  '1',  59.330,  7.917,  100.660,  -21.950,  1.03000,  0,  237.320,  0.00000,  0.17220,  0.00000,  0.00000,  1.00000,  1,  100.0,  197.770,  59.330
4163,  '1',  0.000,  0.000,  4.580,  -1.000,  1.03000,  0,  10.800,  0.00000,  0.23060,  0.00000,  0.00000,  1.00000,  0,  100.0,  9.000,  2.700
4166,  '1',  55.769,  -28.940,  42.810,  -28.940,  1.00000,  0,  241.200,  0.00000,  1.00000,  0.00000,  0.00000,  1.00000,  1,  100.0,  201.000,  60.300
4177,  '1',  41.619,  2.783,  31.950,  -21.600,  1.04000,  0,  180.000,  0.00000,  1.00000,  0.00000,  0.00000,  1.00000,  1,  100.0,  150.000,  45.000
4181,  '1',  80.691,  42.620,  42.620,  -28.810,  1.04000,  0,  240.120,  0.00000,  1.00000,  0.00000,  0.00000,  1.00000,  1,  100.0,  200.100,  60.030
4183,  '1',  56.324,  43.240,  43.240,  -29.230,  1.03000,  0,  243.600,  0.00000,  1.00000,  0.00000,  0.00000,  1.00000,  1,  100.0,  203.000,  60.900
4192,  '1',  652.470,  2.169,  726.490,  -158.450,  1.02000,  0,  1712.76,  0.00000,  0.14340,  0.00000,  0.00000,  1.00000,  1,  100.0,  1427.31,  428.190
4194,  '1',  55.936,  25.653,  42.940,  -29.030,  1.02000,  0,  241.920,  0.00000,  1.00000,  0.00000,  0.00000,  1.00000,  1,  100.0,  201.600,  60.480
5020,  '1',  48.392,  -17.280,  25.560,  -17.280,  1.00000,  0,  144.000,  0.00000,  1.00000,  0.00000,  0.00000,  1.00000,  1,  100.0,  120.000,  36.000
5023,  '1',  0.000,  0.000,  2.440,  -0.530,  1.04000,  0,  5.760,  0.00000,  0.15290,  0.00000,  0.00000,  1.00000,  0,  100.0,  4.800,  1.440
5035,  '1',  0.000,  0.000,  2.140,  -0.470,  1.02000,  0,  5.040,  0.00000,  0.14180,  0.00000,  0.00000,  1.00000,  0,  100.0,  4.200,  1.260
5036,  '1',  0.000,  3.260,  3.260,  -0.710,  1.02000,  0,  7.680,  0.00000,  0.14370,  0.00000,  0.00000,  1.00000,  0,  100.0,  6.400,  1.920
5037,  '1',  222.100,  -34.240,  157.010,  -34.240,  1.02000,  0,  370.160,  0.00000,  0.29910,  0.00000,  0.00000,  1.00000,  1,  100.0,  308.470,  92.540
5038,  '1',  222.100,  -34.240,  157.010,  -34.240,  1.02000,  0,  370.160,  0.00000,  0.12330,  0.00000,  0.00000,  1.00000,  1,  100.0,  308.470,  92.540
5039,  '1',  222.100,  -34.240,  157.010,  -34.240,  1.02000,  0,  370.160,  0.00000,  0.21470,  0.00000,  0.00000,  1.00000,  1,  100.0,  308.470,  92.540
5040,  '1',  222.100,  -34.240,  157.010,  -34.240,  1.02000,  0,  370.160,  0.00000,  0.19240,  0.00000,  0.00000,  1.00000,  1,  100.0,  308.470,  92.540
5041,  '1',  222.100,  -34.240,  157.010,  -34.240,  1.02000,  0,  370.160,  0.00000,  0.11590,  0.00000,  0.00000,  1.00000,  1,  100.0,  308.470,  92.540
5042,  '1',  222.100,  -34.240,  157.010,  -34.240,  1.02000,  0,  370.160,  0.00000,  0.19130,  0.00000,  0.00000,  1.00000,  1,  100.0,  308.470,  92.540
5051,  '1',  0.000,  43.110,  43.110,  -9.400,  1.02000,  0,  101.640,  0.00000,  0.12480,  0.00000,  0.00000,  1.00000,  0,  100.0,  84.700,  25.410
5057,  '1',  184.050,  -35.230,  161.530,  -35.230,  1.00000,  0,  380.820,  0.00000,  0.19130,  0.00000,  0.00000,  1.00000,  1,  100.0,  317.350,  95.200
5058,  '1',  184.060,  -35.230,  161.530,  -35.230,  1.00000,  0,  380.820,  0.00000,  0.29820,  0.00000,  0.00000,  1.00000,  1,  100.0,  317.350,  95.200
5065,  '1',  0.000,  5.400,  5.400,  -1.180,  1.03000,  0,  12.720,  0.00000,  0.13710,  0.00000,  0.00000,  1.00000,  0,  100.0,  10.600,  3.180
5066,  '1',  0.000,  0.920,  0.920,  -0.200,  1.03000,  0,  2.160,  0.00000,  0.13100,  0.00000,  0.00000,  1.00000,  0,  100.0,  1.800,  0.540
5067,  '1',  315.550,  -25.043,  223.080,  -48.650,  1.03000,  0,  525.920,  0.00000,  0.32610,  0.00000,  0.00000,  1.00000,  1,  100.0,  438.270,  131.480
5068,  '1',  315.550,  -25.023,  223.080,  -48.650,  1.03000,  0,  525.920,  0.00000,  0.11690,  0.00000,  0.00000,  1.00000,  1,  100.0,  438.270,  131.480
5069,  '1',  315.550,  -23.917,  223.080,  -48.650,  1.03000,  0,  525.920,  0.00000,  0.10560,  0.00000,  0.00000,  1.00000,  1,  100.0,  438.270,  131.480
5106,  '1',  0.000,  0.000,  5.030,  -1.320,  1.04000,  0,  12.960,  0.00000,  0.31910,  0.00000,  0.00000,  1.00000,  0,  100.0,  10.800,  3.240
5107,  '1',  0.000,  0.000,  2.660,  -0.700,  1.04000,  0,  6.840,  0.00000,  0.27550,  0.00000,  0.00000,  1.00000,  0,  100.0,  5.700,  1.710
5166,  '1',  37.950,  11.712,  64.390,  -14.040,  1.04000,  0,  151.800,  0.00000,  0.13910,  0.00000,  0.00000,  1.00000,  1,  100.0,  126.500,  37.950
5167,  '1',  0.000,  0.810,  0.810,  -0.180,  1.04000,  0,  1.920,  0.00000,  0.10670,  0.00000,  0.00000,  1.00000,  0,  100.0,  1.600,  0.480
5198,  '1',  60.490,  -21.600,  31.950,  -21.600,  1.00000,  0,  180.000,  0.00000,  1.00000,  0.00000,  0.00000,  1.00000,  1,  100.0,  150.000,  45.000
5206,  '1',  144.230,  -27.600,  126.570,  -27.600,  1.01000,  0,  298.400,  0.00000,  0.11980,  0.00000,  0.00000,  1.00000,  1,  100.0,  248.670,  74.600
5207,  '1',  144.230,  -27.600,  126.570,  -27.600,  1.01000,  0,  298.400,  0.00000,  0.18090,  0.00000,  0.00000,  1.00000,  1,  100.0,  248.670,  74.600
5208,  '1',  144.230,  -27.600,  126.570,  -27.600,  1.01000,  0,  298.400,  0.00000,  0.10560,  0.00000,  0.00000,  1.00000,  1,  100.0,  248.670,  74.600
5238,  '1',  90.735,  -32.400,  47.930,  -32.400,  1.00000,  0,  270.000,  0.00000,  1.00000,  0.00000,  0.00000,  1.00000,  1,  100.0,  225.000,  67.500
5243,  '1',  60.490,  -21.600,  31.950,  -21.600,  1.00000,  0,  180.000,  0.00000,  1.00000,  0.00000,  0.00000,  1.00000,  1,  100.0,  150.000,  45.000
5262,  '1',  1215.000,  -99.630,  447.120,  -99.630,  1.01000,  0,  1458.00,  0.00000,  0.26310,  0.00000,  0.00000,  1.00000,  1,  100.0,  1215.00,  364.500
5263,  '1',  1215.000,  -99.630,  447.120,  -99.630,  1.01000,  0,  1458.00,  0.00000,  0.16260,  0.00000,  0.00000,  1.00000,  1,  100.0,  1215.00,  364.500
5281,  '1',  80.320,  -29.720,  136.280,  -29.720,  1.00000,  0,  321.280,  0.00000,  0.10660,  0.00000,  0.00000,  1.00000,  1,  100.0,  267.730,  80.320
5282,  '1',  80.320,  -29.720,  136.280,  -29.720,  1.00000,  0,  321.280,  0.00000,  0.23940,  0.00000,  0.00000,  1.00000,  1,  100.0,  267.730,  80.320
5283,  '1',  80.320,  -29.720,  136.280,  -29.720,  1.00000,  0,  321.280,  0.00000,  0.10650,  0.00000,  0.00000,  1.00000,  1,  100.0,  267.730,  80.320
5297,  '1',  0.000,  0.000,  1.630,  -0.360,  1.04000,  0,  3.840,  0.00000,  0.19100,  0.00000,  0.00000,  1.00000,  0,  100.0,  3.200,  0.960
5298,  '1',  34.500,  45.244,  58.530,  -12.760,  1.04000,  0,  138.000,  0.00000,  0.13260,  0.00000,  0.00000,  1.00000,  1,  100.0,  115.000,  34.500
5299,  '1',  34.500,  21.843,  58.530,  -12.760,  1.04000,  0,  138.000,  0.00000,  0.32280,  0.00000,  0.00000,  1.00000,  1,  100.0,  115.000,  34.500
5300,  '1',  34.500,  26.370,  58.530,  -12.760,  1.04000,  0,  138.000,  0.00000,  0.21910,  0.00000,  0.00000,  1.00000,  1,  100.0,  115.000,  34.500
5301,  '1',  0.000,  42.090,  42.090,  -9.180,  1.04000,  0,  99.240,  0.00000,  0.19640,  0.00000,  0.00000,  1.00000,  0,  100.0,  82.700,  24.810
5302,  '1',  139.130,  27.233,  236.050,  -51.480,  1.04000,  0,  556.500,  0.00000,  0.13300,  0.00000,  0.00000,  1.00000,  1,  100.0,  463.750,  139.130
5303,  '1',  139.130,  36.949,  236.050,  -51.480,  1.04000,  0,  556.500,  0.00000,  0.17920,  0.00000,  0.00000,  1.00000,  1,  100.0,  463.750,  139.130
5319,  '1',  78.840,  -29.170,  133.770,  -29.170,  1.01000,  0,  315.360,  0.00000,  0.25070,  0.00000,  0.00000,  1.00000,  1,  100.0,  262.800,  78.840
5320,  '1',  78.840,  -29.170,  133.770,  -29.170,  1.01000,  0,  315.360,  0.00000,  0.28140,  0.00000,  0.00000,  1.00000,  1,  100.0,  262.800,  78.840
5321,  '1',  78.840,  -29.170,  133.770,  -29.170,  1.01000,  0,  315.360,  0.00000,  0.12810,  0.00000,  0.00000,  1.00000,  1,  100.0,  262.800,  78.840
5324,  '1',  204.530,  32.331,  144.590,  -31.530,  1.04000,  0,  340.880,  0.00000,  0.21670,  0.00000,  0.00000,  1.00000,  1,  100.0,  284.070,  85.220
5325,  '1',  204.530,  33.810,  144.590,  -31.530,  1.04000,  0,  340.880,  0.00000,  0.15030,  0.00000,  0.00000,  1.00000,  1,  100.0,  284.070,  85.220
5326,  '1',  204.530,  90.406,  144.590,  -31.530,  1.04000,  0,  340.880,  0.00000,  0.18810,  0.00000,  0.00000,  1.00000,  1,  100.0,  284.070,  85.220
5360,  '1',  366.072,  -158.539,  469.730,  -122.980,  1.01000,  0,  1209.60,  0.00000,  0.25510,  0.00000,  0.00000,  1.00000,  1,  100.0,  1008.00,  302.400
5363,  '1',  0.000,  -1.150,  5.290,  -1.150,  1.00000,  0,  12.480,  0.00000,  0.25820,  0.00000,  0.00000,  1.00000,  0,  100.0,  10.400,  3.120
5364,  '1',  123.730,  -23.680,  108.590,  -23.680,  1.00000,  0,  256.000,  0.00000,  0.13030,  0.00000,  0.00000,  1.00000,  1,  100.0,  213.330,  64.000
5365,  '1',  123.730,  -23.680,  108.590,  -23.680,  1.00000,  0,  256.000,  0.00000,  0.11650,  0.00000,  0.00000,  1.00000,  1,  100.0,  213.330,  64.000
5366,  '1',  123.730,  -23.680,  108.590,  -23.680,  1.00000,  0,  256.000,  0.00000,  0.15490,  0.00000,  0.00000,  1.00000,  1,  100.0,  213.330,  64.000
5367,  '1',  123.730,  -23.680,  108.590,  -23.680,  1.00000,  0,  256.000,  0.00000,  0.10020,  0.00000,  0.00000,  1.00000,  1,  100.0,  213.330,  64.000
5368,  '1',  123.730,  -23.680,  108.590,  -23.680,  1.00000,  0,  256.000,  0.00000,  0.36180,  0.00000,  0.00000,  1.00000,  1,  100.0,  213.330,  64.000
5369,  '1',  123.730,  -23.680,  108.590,  -23.680,  1.00000,  0,  256.000,  0.00000,  0.24440,  0.00000,  0.00000,  1.00000,  1,  100.0,  213.330,  64.000
5382,  '1',  121.220,  55.557,  106.380,  -23.200,  1.04000,  0,  250.800,  0.00000,  0.24770,  0.00000,  0.00000,  1.00000,  1,  100.0,  209.000,  62.700
5383,  '1',  121.220,  48.873,  106.380,  -23.200,  1.04000,  0,  250.800,  0.00000,  0.39820,  0.00000,  0.00000,  1.00000,  1,  100.0,  209.000,  62.700
5399,  '1',  66.781,  -23.850,  35.270,  -23.850,  1.04000,  0,  198.720,  0.00000,  1.00000,  0.00000,  0.00000,  1.00000,  1,  100.0,  165.600,  49.680
5403,  '1',  0.000,  45.500,  45.500,  -9.920,  1.03000,  0,  107.280,  0.00000,  0.19850,  0.00000,  0.00000,  1.00000,  0,  100.0,  89.400,  26.820
5404,  '1',  0.000,  45.500,  45.500,  -9.920,  1.03000,  0,  107.280,  0.00000,  0.13470,  0.00000,  0.00000,  1.00000,  0,  100.0,  89.400,  26.820
5405,  '1',  0.000,  45.500,  45.500,  -9.920,  1.03000,  0,  107.280,  0.00000,  0.14170,  0.00000,  0.00000,  1.00000,  0,  100.0,  89.400,  26.820
5406,  '1',  0.000,  45.500,  45.500,  -9.920,  1.03000,  0,  107.280,  0.00000,  0.12270,  0.00000,  0.00000,  1.00000,  0,  100.0,  89.400,  26.820
...
 0 /End of Generator data, Begin Branch data
1001,  1064,  '1',  0.00524,  0.03580,  0.00609,  221.00,  0.00,  0.00,  0.00000,  0.000,  0.00000,  0.00000,  0.00000,  0.00000,  1
1001,  1064,  '2',  0.00524,  0.03580,  0.00609,  221.00,  0.00,  0.00,  0.00000,  0.000,  0.00000,  0.00000,  0.00000,  0.00000,  1
1001,  1071,  '1',  0.00435,  0.02808,  0.00536,  221.00,  0.00,  0.00,  0.00000,  0.000,  0.00000,  0.00000,  0.00000,  0.00000,  1
1001,  1071,  '2',  0.00435,  0.02808,  0.00536,  221.00,  0.00,  0.00,  0.00000,  0.000,  0.00000,  0.00000,  0.00000,  0.00000,  1
1001,  11001,  '1',  0.00000,  0.05291,  0.00000,  22.68,  0.00,  0.00,  1.00000,  -1.020,  0.00000,  0.00000,  0.00000,  0.00000,  1
1002,  1007,  '1',  0.07776,  0.46693,  0.06336,  98.00,  0.00,  0.00,  0.00000,  0.000,  0.00000,  0.00000,  0.00000,  0.00000,  1
1002,  -1010,  '1',  0.05552,  0.13570,  0.01777,  98.00,  0.00,  0.00,  0.00000,  0.000,  0.00000,  0.00000,  0.00000,  0.00000,  1
1002,  11002,  '1',  0.00000,  0.08406,  0.00000,  14.27,  0.00,  0.00,  1.00000,  -1.046,  0.00000,  0.00000,  0.00000,  0.00000,  1
1004,  1003,  '1',  0.00450,  0.11582,  0.00000,  250.00,  0.00,  0.00,  1.00000,  0.000,  0.00000,  0.00000,  0.00000,  0.00000,  1
1003,  -1022,  '1',  0.00485,  0.02012,  0.00341,  221.00,  0.00,  0.00,  0.00000,  0.000,  0.00000,  0.00000,  0.00000,  0.00000,  1
1003,  -1055,  '1',  0.01574,  0.03782,  0.00513,  98.00,  0.00,  0.00,  0.00000,  0.000,  0.00000,  0.00000,  0.00000,  0.00000,  1
1004,  3133,  '1',  0.00420,  0.03000,  0.05500,  523.00,  0.00,  0.00,  0.00000,  0.000,  0.00000,  0.00000,  0.00000,  0.00000,  1
1006,  1005,  '1',  0.01300,  0.13000,  0.00000,  42.00,  0.00,  0.00,  1.00000,  0.000,  0.00000,  0.00000,  0.00000,  0.00000,  1
1005,  -1025,  '1',  0.01842,  0.08210,  0.01204,  149.00,  0.00,  0.00,  0.00000,  0.000,  0.00000,  0.00000,  0.00000,  0.00000,  1
1005,  1061,  '1',  0.00599,  0.02484,  0.00422,  221.00,  0.00,  0.00,  0.00000,  0.000,  0.00000,  0.00000,  0.00000,  0.00000,  1
1005,  -1067,  '1',  0.01711,  0.04181,  0.00548,  98.00,  0.00,  0.00,  0.00000,  0.000,  0.00000,  0.00000,  0.00000,  0.00000,  1
1007,  1015,  '1',  0.06224,  0.37375,  0.05072,  98.00,  0.00,  0.00,  0.00000,  0.000,  0.00000,  0.00000,  0.00000,  0.00000,  1
1007,  -1031,  '1',  0.04803,  0.27434,  0.04123,  98.00,  0.00,  0.00,  0.00000,  0.000,  0.00000,  0.00000,  0.00000,  0.00000,  1
1007,  11007,  '1',  0.00000,  0.19865,  0.00000,  6.04,  0.00,  0.00,  1.00000,  -1.033,  0.00000,  0.00000,  0.00000,  0.00000,  1
1009,  1008,  '1',  0.00455,  0.09471,  0.00000,  120.00,  0.00,  0.00,  1.00000,  0.000,  0.00000,  0.00000,  0.00000,  0.00000,  1
1008,  1032,  '1',  0.04501,  0.11002,  0.01441,  98.00,  0.00,  0.00,  0.00000,  0.000,  0.00000,  0.00000,  0.00000,  0.00000,  1
1008,  1069,  '1',  0.00830,  0.03628,  0.00553,  149.00,  0.00,  0.00,  0.00000,  0.000,  0.00000,  0.00000,  0.00000,  0.00000,  1
1011,  1010,  '1',  0.01300,  0.13000,  0.00000,  46.00,  0.00,  0.00,  1.00000,  0.000,  0.00000,  0.00000,  0.00000,  0.00000,  1
1010,  1015,  '1',  0.04703,  0.28243,  0.03833,  98.00,  0.00,  0.00,  0.00000,  0.000,  0.00000,  0.00000,  0.00000,  0.00000,  1
1010,  1030,  '1',  0.06160,  0.36990,  0.05020,  98.00,  0.00,  0.00,  0.00000,  0.000,  0.00000,  0.00000,  0.00000,  0.00000,  1
1012,  1087,  '1',  0.04934,  0.20469,  0.03473,  149.00,  0.00,  0.00,  0.00000,  0.000,  0.00000,  0.00000,  0.00000,  0.00000,  1
1012,  -3051,  '1',  0.05710,  0.24977,  0.03804,  149.00,  0.00,  0.00,  0.00000,  0.000,  0.00000,  0.00000,  0.00000,  0.00000,  1
1012,  11012,  '1',  0.00000,  0.51994,  0.00000,  2.31,  0.00,  0.00,  1.00000,  -1.092,  0.00000,  0.00000,  0.00000,  0.00000,  1
1013,  1031,  '1',  0.04509,  0.27078,  0.03675,  98.00,  0.00,  0.00,  0.00000,  0.000,  0.00000,  0.00000,  0.00000,  0.00000,  1
1013,  -1047,  '1',  0.00947,  0.06117,  0.01167,  221.00,  0.00,  0.00,  0.00000,  0.000,  0.00000,  0.00000,  0.00000,  0.00000,  1
1013,  -1086,  '1',  0.07900,  0.19311,  0.02529,  98.00,  0.00,  0.00,  0.00000,  0.000,  0.00000,  0.00000,  0.00000,  0.00000,  1
1013,  11013,  '1',  0.00000,  0.03961,  0.00000,  30.30,  0.00,  0.00,  1.00000,  -0.964,  0.00000,  0.00000,  0.00000,  0.00000,  1
1014,  1047,  '1',  0.03566,  0.14794,  0.02510,  149.00,  0.00,  0.00,  0.00000,  0.000,  0.00000,  0.00000,  0.00000,  0.00000,  1
1014,  1083,  '1',  0.04105,  0.18293,  0.02682,  149.00,  0.00,  0.00,  0.00000,  0.000,  0.00000,  0.00000,  0.00000,  0.00000,  1
1014,  11014,  '1',  0.00000,  0.52571,  0.00000,  2.28,  0.00,  0.00,  1.00000,  -0.943,  0.00000,  0.00000,  0.00000,  0.00000,  1
1015,  11015,  '1',  0.00000,  0.17249,  0.00000,  6.96,  0.00,  0.00,  1.00000,  -1.043,  0.00000,  0.00000,  0.00000,  0.00000,  1
1016,  1034,  '1',  0.01828,  0.10976,  0.01489,  98.00,  0.00,  0.00,  0.00000,  0.000,  0.00000,  0.00000,  0.00000,  0.00000,  1
1016,  -1068,  '1',  0.02773,  0.15837,  0.02380,  98.00,  0.00,  0.00,  0.00000,  0.000,  0.00000,  0.00000,  0.00000,  0.00000,  1
1016,  11016,  '1',  0.00000,  0.41255,  0.00000,  2.91,  0.00,  0.00,  1.00000,  -0.966,  0.00000,  0.00000,  0.00000,  0.00000,  1
1017,  -1018,  '1',  0.03227,  0.07887,  0.01033,  98.00,  0.00,  0.00,  0.00000,  0.000,  0.00000,  0.00000,  0.00000,  0.00000,  1
1017,  1029,  '1',  0.03244,  0.14188,  0.02161,  149.00,  0.00,  0.00,  0.00000,  0.000,  0.00000,  0.00000,  0.00000,  0.00000,  1
1017,  -1037,  '1',  0.00752,  0.03352,  0.00491,  221.00,  0.00,  0.00,  0.00000,  0.000,  0.00000,  0.00000,  0.00000,  0.00000,  1
1017,  -1047,  '1',  0.03600,  0.15600,  0.02400,  150.00,  0.00,  0.00,  0.00000,  0.000,  0.00000,  0.00000,  0.00000,  0.00000,  1
1017,  11017,  '1',  0.00000,  0.05875,  0.00000,  20.43,  0.00,  0.00,  1.00000,  -1.030,  0.00000,  0.00000,  0.00000,  0.00000,  1
1018,  -1024,  '1',  0.01094,  0.06572,  0.00892,  98.00,  0.00,  0.00,  0.00000,  0.000,  0.00000,  0.00000,  0.00000,  0.00000,  1
1018,  11018,  '1',  0.00000,  16.86460,  0.00000,  0.07,  0.00,  0.00,  1.00000,  -1.042,  0.00000,  0.00000,  0.00000,  0.00000,  1
1019,  1040,  '1',  0.04978,  0.20651,  0.03504,  149.00,  0.00,  0.00,  0.00000,  0.000,  0.00000,  0.00000,  0.00000,  0.00000,  1
1019,  1045,  '1',  0.01522,  0.03720,  0.00487,  221.00,  0.00,  0.00,  0.00000,  0.000,  0.00000,  0.00000,  0.00000,  0.00000,  1
1019,  1071,  '1',  0.00440,  0.02800,  0.00540,  225.00,  0.00,  0.00,  0.00000,  0.000,  0.00000,  0.00000,  0.00000,  0.00000,  1
1019,  -1071,  '2',  0.00440,  0.02800,  0.00540,  225.00,  0.00,  0.00,  0.00000,  0.000,  0.00000,  0.00000,  0.00000,  0.00000,  1
1019,  1084,  '1',  0.03000,  0.16000,  0.02500,  220.00,  0.00,  0.00,  0.00000,  0.000,  0.00000,  0.00000,  0.00000,  0.00000,  1
1019,  11019,  '1',  0.00000,  0.01996,  0.00000,  60.12,  0.00,  0.00,  1.00000,  -1.019,  0.00000,  0.00000,  0.00000,  0.00000,  1
1021,  1020,  '1',  0.00327,  0.07812,  0.00000,  250.00,  0.00,  0.00,  1.00000,  0.000,  0.00000,  0.00000,  0.00000,  0.00000,  1
1020,  -1025,  '1',  0.00828,  0.03434,  0.00583,  149.00,  0.00,  0.00,  0.00000,  0.000,  0.00000,  0.00000,  0.00000,  0.00000,  1
1020,  -1084,  '1',  0.01056,  0.06337,  0.00860,  221.00,  0.00,  0.00,  0.00000,  0.000,  0.00000,  0.00000,  0.00000,  0.00000,  1
1020,  3059,  '1',  0.01890,  0.06000,  0.00600,  300.00,  0.00,  0.00,  0.00000,  0.000,  0.00000,  0.00000,  0.00000,  0.00000,  1
1020,  3130,  '1',  0.00996,  0.06938,  0.01134,  221.00,  0.00,  0.00,  0.00000,  0.000,  0.00000,  0.00000,  0.00000,  0.00000,  1
1023,  1022,  '1',  0.00535,  0.11733,  0.00000,  250.00,  0.00,  0.00,  1.00000,  0.000,  0.00000,  0.00000,  0.00000,  0.00000,  1
1022,  1028,  '1',  0.01433,  0.09253,  0.01765,  221.00,  0.00,  0.00,  0.00000,  0.000,  0.00000,  0.00000,  0.00000,  0.00000,  1
1022,  1028,  '2',  0.01433,  0.09253,  0.01765,  221.00,  0.00,  0.00,  0.00000,  0.000,  0.00000,  0.00000,  0.00000,  0.00000,  1
1024,  1090,  '1',  0.01414,  0.06303,  0.00924,  149.00,  0.00,  0.00,  0.00000,  0.000,  0.00000,  0.00000,  0.00000,  0.00000,  1
1024,  11024,  '1',  0.00000,  0.01721,  0.00000,  69.74,  0.00,  0.00,  1.00000,  -1.052,  0.00000,  0.00000,  0.00000,  0.00000,  1
1026,  1025,  '1',  0.01300,  0.13000,  0.00000,  200.00,  0.00,  0.00,  1.00000,  0.000,  0.00000,  0.00000,  0.00000,  0.00000,  1
1027,  1045,  '1',  0.02505,  0.10957,  0.01669,  221.00,  0.00,  0.00,  0.00000,  0.000,  0.00000,  0.00000,  0.00000,  0.00000,  1
1027,  -1056,  '1',  0.03121,  0.07630,  0.00999,  250.00,  0.00,  0.00,  0.00000,  0.000,  0.00000,  0.00000,  0.00000,  0.00000,  1
1027,  11027,  '1',  0.00000,  0.01529,  0.00000,  78.47,  0.00,  0.00,  1.00000,  -1.045,  0.00000,  0.00000,  0.00000,  0.00000,  1
1028,  3109,  '1',  0.00428,  0.01875,  0.00286,  250.00,  0.00,  0.00,  0.00000,  0.000,  0.00000,  0.00000,  0.00000,  0.00000,  1
1028,  11028,  '1',  0.00000,  0.13159,  0.00000,  9.12,  0.00,  0.00,  1.00000,  -0.892,  0.00000,  0.00000,  0.00000,  0.00000,  1
1029,  1056,  '1',  0.02054,  0.11733,  0.01763,  221.00,  0.00,  0.00,  0.00000,  0.000,  0.00000,  0.00000,  0.00000,  0.00000,  1
1029,  11029,  '1',  0.00000,  0.01209,  0.00000,  99.23,  0.00,  0.00,  1.00000,  -1.062,  0.00000,  0.00000,  0.00000,  0.00000,  1
1030,  1038,  '1',  0.07404,  0.42285,  0.06354,  98.00,  0.00,  0.00,  0.00000,  0.000,  0.00000,  0.00000,  0.00000,  0.00000,  1
1030,  -1083,  '1',  0.06537,  0.37334,  0.05610,  98.00,  0.00,  0.00,  0.00000,  0.000,  0.00000,  0.00000,  0.00000,  0.00000,  1
1030,  11030,  '1',  0.00000,  0.08153,  0.00000,  14.72,  0.00,  0.00,  1.00000,  -0.993,  0.00000,  0.00000,  0.00000,  0.00000,  1
1031,  11031,  '1',  0.00000,  0.27336,  0.00000,  4.39,  0.00,  0.00,  1.00000,  -1.004,  0.00000,  0.00000,  0.00000,  0.00000,  1
1033,  1032,  '1',  0.00283,  0.06758,  0.00000,  170.00,  0.00,  0.00,  1.00000,  0.000,  0.00000,  0.00000,  0.00000,  0.00000,  1
1032,  1036,  '1',  0.01956,  0.11746,  0.01594,  98.00,  0.00,  0.00,  0.00000,  0.000,  0.00000,  0.00000,  0.00000,  0.00000,  1
1032,  -1038,  '1',  0.04500,  0.11000,  0.01500,  155.00,  0.00,  0.00,  0.00000,  0.000,  0.00000,  0.00000,  0.00000,  0.00000,  1
1033,  1081,  '1',  0.00300,  0.03100,  0.05900,  548.00,  0.00,  0.00,  0.00000,  0.000,  0.00000,  0.00000,  0.00000,  0.00000,  1
1033,  3050,  '1',  0.01390,  0.13600,  0.26200,  647.00,  0.00,  0.00,  0.00000,  0.000,  0.00000,  0.00000,  0.00000,  0.00000,  1
1035,  1034,  '1',  0.00438,  0.08496,  0.00000,  130.00,  0.00,  0.00,  1.00000,  0.000,  0.00000,  0.00000,  0.00000,  0.00000,  1
...